 08/25/93 UW ARCHIVE           100.0  1961 W IEEE 118 Bus Test Case
BUS DATA FOLLOWS                            57 ITEMS
   1 Riversde  V2  1  1  2 0.955  10.67     51.0     27.0      0.0     0.0     0.0  0.955    15.0    -5.0   0.0    0.0        0
   2 Pokagon   V2  1  1  0 0.971  11.22     20.0      9.0      0.0     0.0     0.0  0.0       0.0     0.0   0.0    0.0        0
   3 HickryCk  V2  1  1  0 0.968  11.56     39.0     10.0      0.0     0.0     0.0  0.0       0.0     0.0   0.0    0.0        0
   4 NwCarlsl  V2  1  1  2 0.998  15.28     30.0     12.0     -9.0     0.0     0.0  0.998   300.0  -300.0   0.0    0.0        0
   5 Olive     V2  1  1  0 1.002  15.73      0.0      0.0      0.0     0.0     0.0  0.0       0.0     0.0   0.0   -0.40       0
   6 Kankakee  V2  1  1  2 0.990  13.00     52.0     22.0      0.0     0.0     0.0  0.990    50.0   -13.0   0.0    0.0        0
   7 JacksnRd  V2  1  1  0 0.989  12.56     19.0      2.0      0.0     0.0     0.0  0.0       0.0     0.0   0.0    0.0        0
   8 Olive     V1  1  1  2 1.015  20.77      0.0      0.0    -28.0     0.0     0.0  1.015   300.0  -300.0   0.0    0.0        0
   9 Bequine   V1  1  1  0 1.043  28.02      0.0      0.0      0.0     0.0     0.0  0.0       0.0     0.0   0.0    0.0        0
  10 Breed     V1  1  1  2 1.050  35.61      0.0      0.0    450.0     0.0     0.0  1.050   200.0  -147.0   0.0    0.0        0
  11 SouthBnd  V2  1  1  0 0.985  12.72     70.0     23.0      0.0     0.0     0.0  0.0       0.0     0.0   0.0    0.0        0
  12 TwinBrch  V2  1  1  2 0.990  12.20     47.0     10.0     85.0     0.0     0.0  0.990   120.0   -35.0   0.0    0.0        0
  13 Concord   V2  1  1  0 0.968  11.35     34.0     16.0      0.0     0.0     0.0  0.0       0.0     0.0   0.0    0.0        0
  14 GoshenJt  V2  1  1  0 0.984  11.50     14.0      1.0      0.0     0.0     0.0  0.0       0.0     0.0   0.0    0.0        0
  15 FtWayne   V2  1  1  2 0.970  11.23     90.0     30.0      0.0     0.0     0.0  0.970    30.0   -10.0   0.0    0.0        0
  16 N. E.     V2  1  1  0 0.984  11.91     25.0     10.0      0.0     0.0     0.0  0.0       0.0     0.0   0.0    0.0        0
  17 Sorenson  V2  1  1  0 0.995  13.74     11.0      3.0      0.0     0.0     0.0  0.0       0.0     0.0   0.0    0.0        0
  18 McKinley  V2  1  1  2 0.973  11.53     60.0     34.0      0.0     0.0     0.0  0.973    50.0   -16.0   0.0    0.0        0
  19 Lincoln   V2  1  1  2 0.963  11.05     45.0     25.0      0.0     0.0     0.0  0.962    24.0    -8.0   0.0    0.0        0
  20 Adams     V2  1  1  0 0.958  11.93     18.0      3.0      0.0     0.0     0.0  0.0       0.0     0.0   0.0    0.0        0
  21 Jay       V2  1  1  0 0.959  13.52     14.0      8.0      0.0     0.0     0.0  0.0       0.0     0.0   0.0    0.0        0
  22 Randolph  V2  1  1  0 0.970  16.08     10.0      5.0      0.0     0.0     0.0  0.0       0.0     0.0   0.0    0.0        0
  23 CollCrnr  V2  1  1  0 1.000  21.00      7.0      3.0      0.0     0.0     0.0  0.0       0.0     0.0   0.0    0.0        0
  24 Trenton   V2  1  1  2 0.992  20.89      0.0      0.0    -13.0     0.0     0.0  0.992   300.0  -300.0   0.0    0.0        0
  25 TannrsCk  V2  1  1  2 1.050  27.93      0.0      0.0    220.0     0.0     0.0  1.050   140.0   -47.0   0.0    0.0        0
  26 TannrsCk  V1  1  1  2 1.015  29.71      0.0      0.0    314.0     0.0     0.0  1.015  1000.0 -1000.0   0.0    0.0        0
  27 Madison   V2  1  1  2 0.968  15.35     62.0     13.0     -9.0     0.0     0.0  0.968   300.0  -300.0   0.0    0.0        0
  28 Mullin    V2  1  1  0 0.962  13.62     17.0      7.0      0.0     0.0     0.0  0.0       0.0     0.0   0.0    0.0        0
  29 Grant     V2  1  1  0 0.963  12.63     24.0      4.0      0.0     0.0     0.0  0.0       0.0     0.0   0.0    0.0        0
  30 Sorenson  V1  1  1  0 0.968  18.79      0.0      0.0      0.0     0.0     0.0  0.0       0.0     0.0   0.0    0.0        0
  31 DeerCrk   V2  1  1  2 0.967  12.75     43.0     27.0      7.0     0.0     0.0  0.967   300.0  -300.0   0.0    0.0        0
  32 Delaware  V2  1  1  2 0.964  14.80     59.0     23.0      0.0     0.0     0.0  0.963    42.0   -14.0   0.0    0.0        0
  33 Haviland  V2  1  1  0 0.972  10.63     23.0      9.0      0.0     0.0     0.0  0.0       0.0     0.0   0.0    0.0        0
  34 Rockhill  V2  1  1  2 0.986  11.30     59.0     26.0      0.0     0.0     0.0  0.984    24.0    -8.0   0.0    0.14       0
  35 WestLima  V2  1  1  0 0.981  10.87     33.0      9.0      0.0     0.0     0.0  0.0       0.0     0.0   0.0    0.0        0
  36 Sterling  V2  1  1  2 0.980  10.87     31.0     17.0      0.0     0.0     0.0  0.980    24.0    -8.0   0.0    0.0        0
  37 EastLima  V2  1  1  0 0.992  11.77      0.0      0.0      0.0     0.0     0.0  0.0       0.0     0.0   0.0   -0.25       0
  38 EastLima  V1  1  1  0 0.962  16.91      0.0      0.0      0.0     0.0     0.0  0.0       0.0     0.0   0.0    0.0        0
  39 NwLibrty  V2  1  1  0 0.970   8.41     27.0     11.0      0.0     0.0     0.0  0.0       0.0     0.0   0.0    0.0        0
  40 West End  V2  1  1  2 0.970   7.35     20.0     23.0    -46.0     0.0     0.0  0.970   300.0  -300.0   0.0    0.0        0
  41 S.Tiffin  V2  1  1  0 0.967   6.92     37.0     10.0      0.0     0.0     0.0  0.0       0.0     0.0   0.0    0.0        0
  42 Howard    V2  1  1  2 0.985   8.53     37.0     23.0    -59.0     0.0     0.0  0.985   300.0  -300.0   0.0    0.0        0
  43 S.Kenton  V2  1  1  0 0.978  11.28     18.0      7.0      0.0     0.0     0.0  0.0       0.0     0.0   0.0    0.0        0
  44 WMVernon  V2  1  1  0 0.985  13.82     16.0      8.0      0.0     0.0     0.0  0.0       0.0     0.0   0.0    0.10       0
  45 N.Newark  V2  1  1  0 0.987  15.67     53.0     22.0      0.0     0.0     0.0  0.0       0.0     0.0   0.0    0.10       0
  46 W.Lancst  V2  1  1  2 1.005  18.49     28.0     10.0     19.0     0.0     0.0  1.005   100.0  -100.0   0.0    0.10       0
  47 Crooksvl  V2  1  1  0 1.017  20.73     34.0      0.0      0.0     0.0     0.0  0.0       0.0     0.0   0.0    0.0        0
  48 Zanesvll  V2  1  1  0 1.021  19.93     20.0     11.0      0.0     0.0     0.0  0.0       0.0     0.0   0.0    0.15       0
  49 Philo     V2  1  1  2 1.025  20.94     87.0     30.0    204.0     0.0     0.0  1.025   210.0   -85.0   0.0    0.0        0
  50 WCambrdg  V2  1  1  0 1.001  18.90     17.0      4.0      0.0     0.0     0.0  0.0       0.0     0.0   0.0    0.0        0
  51 Newcmrst  V2  1  1  0 0.967  16.28     17.0      8.0      0.0     0.0     0.0  0.0       0.0     0.0   0.0    0.0        0
  52 SCoshoct  V2  1  1  0 0.957  15.32     18.0      5.0      0.0     0.0     0.0  0.0       0.0     0.0   0.0    0.0        0
  53 Wooster   V2  1  1  0 0.946  14.35     23.0     11.0      0.0     0.0     0.0  0.0       0.0     0.0   0.0    0.0        0
  54 Torrey    V2  1  1  2 0.955  15.26    113.0     32.0     48.0     0.0     0.0  0.955   300.0  -300.0   0.0    0.0        0
  55 Wagenhls  V2  1  1  2 0.952  14.97     63.0     22.0      0.0     0.0     0.0  0.952    23.0    -8.0   0.0    0.0        0
  56 Sunnysde  V2  1  1  2 0.954  15.16     84.0     18.0      0.0     0.0     0.0  0.954    15.0    -8.0   0.0    0.0        0
  57 WNwPhil1  V2  1  1  0 0.971  16.36     12.0      3.0      0.0     0.0     0.0  0.0       0.0     0.0   0.0    0.0        0
  58 WNwPhil2  V2  1  1  0 0.959  15.51     12.0      3.0      0.0     0.0     0.0  0.0       0.0     0.0   0.0    0.0        0
  59 Tidd      V2  1  1  2 0.985  19.37    277.0    113.0    155.0     0.0     0.0  0.985   180.0   -60.0   0.0    0.0        0
  60 SWKammer  V2  1  1  0 0.993  23.15     78.0      3.0      0.0     0.0     0.0  0.0       0.0     0.0   0.0    0.0        0
  61 W.Kammer  V2  1  1  2 0.995  24.04      0.0      0.0    160.0     0.0     0.0  0.995   300.0  -100.0   0.0    0.0        0
  62 Natrium   V2  1  1  2 0.998  23.43     77.0     14.0      0.0     0.0     0.0  0.998    20.0   -20.0   0.0    0.0        0
  63 Tidd      V1  1  1  0 0.969  22.75      0.0      0.0      0.0     0.0     0.0  0.0       0.0     0.0   0.0    0.0        0
  64 Kammer    V1  1  1  0 0.984  24.52      0.0      0.0      0.0     0.0     0.0  0.0       0.0     0.0   0.0    0.0        0
  65 Muskngum  V1  1  1  2 1.005  27.65      0.0      0.0    391.0     0.0     0.0  1.005   200.0   -67.0   0.0    0.0        0
  66 Muskngum  V2  1  1  2 1.050  27.48     39.0     18.0    392.0     0.0     0.0  1.050   200.0   -67.0   0.0    0.0        0
  67 Summerfl  V2  1  1  0 1.020  24.84     28.0      7.0      0.0     0.0     0.0  0.0       0.0     0.0   0.0    0.0        0
  68 Sporn     V1  1  1  0 1.003  27.55      0.0      0.0      0.0     0.0     0.0  0.0       0.0     0.0   0.0    0.0        0
  69 Sporn     V2  1  1  3 1.035  30.00      0.0      0.0    516.4     0.0     0.0  1.035   300.0  -300.0   0.0    0.0        0
  70 Portsmth  V2  1  1  2 0.984  22.58     66.0     20.0      0.0     0.0     0.0  0.984    32.0   -10.0   0.0    0.0        0
  71 NPortsmt  V2  1  1  0 0.987  22.15      0.0      0.0      0.0     0.0     0.0  0.0       0.0     0.0   0.0    0.0        0
  72 Hillsbro  V2  1  1  2 0.980  20.98      0.0      0.0    -12.0     0.0     0.0  0.980   100.0  -100.0   0.0    0.0        0
  73 Sargents  V2  1  1  2 0.991  21.94      0.0      0.0     -6.0     0.0     0.0  0.991   100.0  -100.0   0.0    0.0        0
  74 Bellefnt  V2  1  1  2 0.958  21.64     68.0     27.0      0.0     0.0     0.0  0.958     9.0    -6.0   0.0    0.12       0
  75 SthPoint  V2  1  1  0 0.967  22.91     47.0     11.0      0.0     0.0     0.0  0.0       0.0     0.0   0.0    0.0        0
  76 Darrah    V2  1  1  2 0.943  21.77     68.0     36.0      0.0     0.0     0.0  0.943    23.0    -8.0   0.0    0.0        0
  77 Turner    V2  1  1  2 1.006  26.72     61.0     28.0      0.0     0.0     0.0  1.006    70.0   -20.0   0.0    0.0        0
  78 Chemical  V2  1  1  0 1.003  26.42     71.0     26.0      0.0     0.0     0.0  0.0       0.0     0.0   0.0    0.0        0
  79 CapitlHl  V2  1  1  0 1.009  26.72     39.0     32.0      0.0     0.0     0.0  0.0       0.0     0.0   0.0    0.20       0
  80 CabinCrk  V2  1  1  2 1.040  28.96    130.0     26.0    477.0     0.0     0.0  1.040   280.0  -165.0   0.0    0.0        0
  81 Kanawha   V1  1  1  0 0.997  28.10      0.0      0.0      0.0     0.0     0.0  0.0       0.0     0.0   0.0    0.0        0
  82 Logan     V2  1  1  0 0.989  27.24     54.0     27.0      0.0     0.0     0.0  0.0       0.0     0.0   0.0    0.20       0
  83 Sprigg    V2  1  1  0 0.985  28.42     20.0     10.0      0.0     0.0     0.0  0.0       0.0     0.0   0.0    0.10       0
  84 BetsyLne  V2  1  1  0 0.980  30.95     11.0      7.0      0.0     0.0     0.0  0.0       0.0     0.0   0.0    0.0        0
  85 BeaverCk  V2  1  1  2 0.985  32.51     24.0     15.0      0.0     0.0     0.0  0.985    23.0    -8.0   0.0    0.0        0
  86 Hazard    V2  1  1  0 0.987  31.14     21.0     10.0      0.0     0.0     0.0  0.0       0.0     0.0   0.0    0.0        0
  87 Pinevlle  V3  1  1  2 1.015  31.40      0.0      0.0      4.0     0.0     0.0  1.015  1000.0  -100.0   0.0    0.0        0
  88 Fremont   V2  1  1  0 0.987  35.64     48.0     10.0      0.0     0.0     0.0  0.0       0.0     0.0   0.0    0.0        0
  89 ClinchRv  V2  1  1  2 1.005  39.69      0.0      0.0    607.0     0.0     0.0  1.005   300.0  -210.0   0.0    0.0        0
  90 Holston   V2  1  1  2 0.985  33.29     78.0     42.0    -85.0     0.0     0.0  0.985   300.0  -300.0   0.0    0.0        0
  91 HolstonT  V2  1  1  2 0.980  33.31      0.0      0.0    -10.0     0.0     0.0  0.980   100.0  -100.0   0.0    0.0        0
  92 Saltvlle  V2  1  1  2 0.993  33.80     65.0     10.0      0.0     0.0     0.0  0.990     9.0    -3.0   0.0    0.0        0
  93 Tazewell  V2  1  1  0 0.987  30.79     12.0      7.0      0.0     0.0     0.0  0.0       0.0     0.0   0.0    0.0        0
  94 Switchbk  V2  1  1  0 0.991  28.64     30.0     16.0      0.0     0.0     0.0  0.0       0.0     0.0   0.0    0.0        0
  95 Caldwell  V2  1  1  0 0.981  27.67     42.0     31.0      0.0     0.0     0.0  0.0       0.0     0.0   0.0    0.0        0
  96 Baileysv  V2  1  1  0 0.993  27.51     38.0     15.0      0.0     0.0     0.0  0.0       0.0     0.0   0.0    0.0        0
  97 Sundial   V2  1  1  0 1.011  27.88     15.0      9.0      0.0     0.0     0.0  0.0       0.0     0.0   0.0    0.0        0
  98 Bradley   V2  1  1  0 1.024  27.40     34.0      8.0      0.0     0.0     0.0  0.0       0.0     0.0   0.0    0.0        0
  99 Hinton    V2  1  1  2 1.010  27.04      0.0      0.0    -42.0     0.0     0.0  1.010   100.0  -100.0   0.0    0.0        0
 100 Glen Lyn  V2  1  1  2 1.017  28.03     37.0     18.0    252.0     0.0     0.0  1.017   155.0   -50.0   0.0    0.0        0
 101 Wythe     V2  1  1  0 0.993  29.61     22.0     15.0      0.0     0.0     0.0  0.0       0.0     0.0   0.0    0.0        0
 102 Smythe    V2  1  1  0 0.991  32.30      5.0      3.0      0.0     0.0     0.0  0.0       0.0     0.0   0.0    0.0        0
 103 Claytor   V2  1  1  2 1.001  24.44     23.0     16.0     40.0     0.0     0.0  1.01     40.0   -15.0   0.0    0.0        0
 104 Hancock   V2  1  1  2 0.971  21.69     38.0     25.0      0.0     0.0     0.0  0.971    23.0    -8.0   0.0    0.0        0
 105 Roanoke   V2  1  1  2 0.965  20.57     31.0     26.0      0.0     0.0     0.0  0.965    23.0    -8.0   0.0    0.20       0
 106 Cloverdl  V2  1  1  0 0.962  20.32     43.0     16.0      0.0     0.0     0.0  0.0       0.0     0.0   0.0    0.0        0
 107 Reusens   V2  1  1  2 0.952  17.53     28.0     12.0    -22.0     0.0     0.0  0.952   200.0  -200.0   0.0    0.06       0
 108 Blaine    V2  1  1  0 0.967  19.38      2.0      1.0      0.0     0.0     0.0  0.0       0.0     0.0   0.0    0.0        0
 109 Franklin  V2  1  1  0 0.967  18.93      8.0      3.0      0.0     0.0     0.0  0.0       0.0     0.0   0.0    0.0        0
 110 Fieldale  V2  1  1  2 0.973  18.09     39.0     30.0      0.0     0.0     0.0  0.973    23.0    -8.0   0.0    0.06       0
 111 DanRiver  V2  1  1  2 0.980  19.74      0.0      0.0     36.0     0.0     0.0  0.980  1000.0  -100.0   0.0    0.0        0
 112 Danville  V2  1  1  2 0.975  14.99     25.0     13.0    -43.0     0.0     0.0  0.975  1000.0  -100.0   0.0    0.0        0
 113 Deer Crk  V2  1  1  2 0.993  13.74      0.0      0.0     -6.0     0.0     0.0  0.993   200.0  -100.0   0.0    0.0        0
 114 WMedford  V2  1  1  0 0.960  14.46      8.0      3.0      0.0     0.0     0.0  0.0       0.0     0.0   0.0    0.0        0
 115 Medford   V2  1  1  0 0.960  14.46     22.0      7.0      0.0     0.0     0.0  0.0       0.0     0.0   0.0    0.0        0
 116 KygerCrk  V2  1  1  2 1.005  27.12      0.0      0.0   -184.0     0.0     0.0  1.005  1000.0 -1000.0   0.0    0.0        0
 117 Corey     V2  1  1  0 0.974  10.67     20.0      8.0      0.0     0.0     0.0  0.0       0.0     0.0   0.0    0.0        0
 118 WHuntngd  V2  1  1  0 0.949  21.92     33.0     15.0      0.0     0.0     0.0  0.0       0.0     0.0   0.0    0.0        0
 119 Riversde  V2  1  1  2 0.955  10.67     51.0     27.0      0.0     0.0     0.0  0.955    15.0    -5.0   0.0    0.0        0
 120 Pokagon   V2  1  1  0 0.971  11.22     20.0      9.0      0.0     0.0     0.0  0.0       0.0     0.0   0.0    0.0        0
 121 HickryCk  V2  1  1  0 0.968  11.56     39.0     10.0      0.0     0.0     0.0  0.0       0.0     0.0   0.0    0.0        0
 122 NwCarlsl  V2  1  1  2 0.998  15.28     30.0     12.0     -9.0     0.0     0.0  0.998   300.0  -300.0   0.0    0.0        0
 123 Olive     V2  1  1  0 1.002  15.73      0.0      0.0      0.0     0.0     0.0  0.0       0.0     0.0   0.0   -0.40       0
 124 Kankakee  V2  1  1  2 0.990  13.00     52.0     22.0      0.0     0.0     0.0  0.990    50.0   -13.0   0.0    0.0        0
 125 JacksnRd  V2  1  1  0 0.989  12.56     19.0      2.0      0.0     0.0     0.0  0.0       0.0     0.0   0.0    0.0        0
 126 Olive     V1  1  1  2 1.015  20.77      0.0      0.0    -28.0     0.0     0.0  1.015   300.0  -300.0   0.0    0.0        0
 127 Bequine   V1  1  1  0 1.043  28.02      0.0      0.0      0.0     0.0     0.0  0.0       0.0     0.0   0.0    0.0        0
 128 Breed     V1  1  1  2 1.050  35.61      0.0      0.0    450.0     0.0     0.0  1.050   200.0  -147.0   0.0    0.0        0
 129 SouthBnd  V2  1  1  0 0.985  12.72     70.0     23.0      0.0     0.0     0.0  0.0       0.0     0.0   0.0    0.0        0
 130 TwinBrch  V2  1  1  2 0.990  12.20     47.0     10.0     85.0     0.0     0.0  0.990   120.0   -35.0   0.0    0.0        0
 131 Concord   V2  1  1  0 0.968  11.35     34.0     16.0      0.0     0.0     0.0  0.0       0.0     0.0   0.0    0.0        0
 132 GoshenJt  V2  1  1  0 0.984  11.50     14.0      1.0      0.0     0.0     0.0  0.0       0.0     0.0   0.0    0.0        0
 133 FtWayne   V2  1  1  2 0.970  11.23     90.0     30.0      0.0     0.0     0.0  0.970    30.0   -10.0   0.0    0.0        0
 134 N. E.     V2  1  1  0 0.984  11.91     25.0     10.0      0.0     0.0     0.0  0.0       0.0     0.0   0.0    0.0        0
 135 Sorenson  V2  1  1  0 0.995  13.74     11.0      3.0      0.0     0.0     0.0  0.0       0.0     0.0   0.0    0.0        0
 136 McKinley  V2  1  1  2 0.973  11.53     60.0     34.0      0.0     0.0     0.0  0.973    50.0   -16.0   0.0    0.0        0
 137 Lincoln   V2  1  1  2 0.963  11.05     45.0     25.0      0.0     0.0     0.0  0.962    24.0    -8.0   0.0    0.0        0
 138 Adams     V2  1  1  0 0.958  11.93     18.0      3.0      0.0     0.0     0.0  0.0       0.0     0.0   0.0    0.0        0
 139 Jay       V2  1  1  0 0.959  13.52     14.0      8.0      0.0     0.0     0.0  0.0       0.0     0.0   0.0    0.0        0
 140 Randolph  V2  1  1  0 0.970  16.08     10.0      5.0      0.0     0.0     0.0  0.0       0.0     0.0   0.0    0.0        0
 141 CollCrnr  V2  1  1  0 1.000  21.00      7.0      3.0      0.0     0.0     0.0  0.0       0.0     0.0   0.0    0.0        0
 142 Trenton   V2  1  1  2 0.992  20.89      0.0      0.0    -13.0     0.0     0.0  0.992   300.0  -300.0   0.0    0.0        0
 143 TannrsCk  V2  1  1  2 1.050  27.93      0.0      0.0    220.0     0.0     0.0  1.050   140.0   -47.0   0.0    0.0        0
 144 TannrsCk  V1  1  1  2 1.015  29.71      0.0      0.0    314.0     0.0     0.0  1.015  1000.0 -1000.0   0.0    0.0        0
 145 Madison   V2  1  1  2 0.968  15.35     62.0     13.0     -9.0     0.0     0.0  0.968   300.0  -300.0   0.0    0.0        0
 146 Mullin    V2  1  1  0 0.962  13.62     17.0      7.0      0.0     0.0     0.0  0.0       0.0     0.0   0.0    0.0        0
 147 Grant     V2  1  1  0 0.963  12.63     24.0      4.0      0.0     0.0     0.0  0.0       0.0     0.0   0.0    0.0        0
 148 Sorenson  V1  1  1  0 0.968  18.79      0.0      0.0      0.0     0.0     0.0  0.0       0.0     0.0   0.0    0.0        0
 149 DeerCrk   V2  1  1  2 0.967  12.75     43.0     27.0      7.0     0.0     0.0  0.967   300.0  -300.0   0.0    0.0        0
 150 Delaware  V2  1  1  2 0.964  14.80     59.0     23.0      0.0     0.0     0.0  0.963    42.0   -14.0   0.0    0.0        0
 151 Haviland  V2  1  1  0 0.972  10.63     23.0      9.0      0.0     0.0     0.0  0.0       0.0     0.0   0.0    0.0        0
 152 Rockhill  V2  1  1  2 0.986  11.30     59.0     26.0      0.0     0.0     0.0  0.984    24.0    -8.0   0.0    0.14       0
 153 WestLima  V2  1  1  0 0.981  10.87     33.0      9.0      0.0     0.0     0.0  0.0       0.0     0.0   0.0    0.0        0
 154 Sterling  V2  1  1  2 0.980  10.87     31.0     17.0      0.0     0.0     0.0  0.980    24.0    -8.0   0.0    0.0        0
 155 EastLima  V2  1  1  0 0.992  11.77      0.0      0.0      0.0     0.0     0.0  0.0       0.0     0.0   0.0   -0.25       0
 156 EastLima  V1  1  1  0 0.962  16.91      0.0      0.0      0.0     0.0     0.0  0.0       0.0     0.0   0.0    0.0        0
 157 NwLibrty  V2  1  1  0 0.970   8.41     27.0     11.0      0.0     0.0     0.0  0.0       0.0     0.0   0.0    0.0        0
 158 West End  V2  1  1  2 0.970   7.35     20.0     23.0    -46.0     0.0     0.0  0.970   300.0  -300.0   0.0    0.0        0
 159 S.Tiffin  V2  1  1  0 0.967   6.92     37.0     10.0      0.0     0.0     0.0  0.0       0.0     0.0   0.0    0.0        0
 160 Howard    V2  1  1  2 0.985   8.53     37.0     23.0    -59.0     0.0     0.0  0.985   300.0  -300.0   0.0    0.0        0
 161 S.Kenton  V2  1  1  0 0.978  11.28     18.0      7.0      0.0     0.0     0.0  0.0       0.0     0.0   0.0    0.0        0
 162 WMVernon  V2  1  1  0 0.985  13.82     16.0      8.0      0.0     0.0     0.0  0.0       0.0     0.0   0.0    0.10       0
 163 N.Newark  V2  1  1  0 0.987  15.67     53.0     22.0      0.0     0.0     0.0  0.0       0.0     0.0   0.0    0.10       0
 164 W.Lancst  V2  1  1  2 1.005  18.49     28.0     10.0     19.0     0.0     0.0  1.005   100.0  -100.0   0.0    0.10       0
 165 Crooksvl  V2  1  1  0 1.017  20.73     34.0      0.0      0.0     0.0     0.0  0.0       0.0     0.0   0.0    0.0        0
 166 Zanesvll  V2  1  1  0 1.021  19.93     20.0     11.0      0.0     0.0     0.0  0.0       0.0     0.0   0.0    0.15       0
 167 Philo     V2  1  1  2 1.025  20.94     87.0     30.0    204.0     0.0     0.0  1.025   210.0   -85.0   0.0    0.0        0
 168 WCambrdg  V2  1  1  0 1.001  18.90     17.0      4.0      0.0     0.0     0.0  0.0       0.0     0.0   0.0    0.0        0
 169 Newcmrst  V2  1  1  0 0.967  16.28     17.0      8.0      0.0     0.0     0.0  0.0       0.0     0.0   0.0    0.0        0
 170 SCoshoct  V2  1  1  0 0.957  15.32     18.0      5.0      0.0     0.0     0.0  0.0       0.0     0.0   0.0    0.0        0
 171 Wooster   V2  1  1  0 0.946  14.35     23.0     11.0      0.0     0.0     0.0  0.0       0.0     0.0   0.0    0.0        0
 172 Torrey    V2  1  1  2 0.955  15.26    113.0     32.0     48.0     0.0     0.0  0.955   300.0  -300.0   0.0    0.0        0
 173 Wagenhls  V2  1  1  2 0.952  14.97     63.0     22.0      0.0     0.0     0.0  0.952    23.0    -8.0   0.0    0.0        0
 174 Sunnysde  V2  1  1  2 0.954  15.16     84.0     18.0      0.0     0.0     0.0  0.954    15.0    -8.0   0.0    0.0        0
 175 WNwPhil1  V2  1  1  0 0.971  16.36     12.0      3.0      0.0     0.0     0.0  0.0       0.0     0.0   0.0    0.0        0
 176 WNwPhil2  V2  1  1  0 0.959  15.51     12.0      3.0      0.0     0.0     0.0  0.0       0.0     0.0   0.0    0.0        0
 177 Tidd      V2  1  1  2 0.985  19.37    277.0    113.0    155.0     0.0     0.0  0.985   180.0   -60.0   0.0    0.0        0
 178 SWKammer  V2  1  1  0 0.993  23.15     78.0      3.0      0.0     0.0     0.0  0.0       0.0     0.0   0.0    0.0        0
 179 W.Kammer  V2  1  1  2 0.995  24.04      0.0      0.0    160.0     0.0     0.0  0.995   300.0  -100.0   0.0    0.0        0
 180 Natrium   V2  1  1  2 0.998  23.43     77.0     14.0      0.0     0.0     0.0  0.998    20.0   -20.0   0.0    0.0        0
 181 Tidd      V1  1  1  0 0.969  22.75      0.0      0.0      0.0     0.0     0.0  0.0       0.0     0.0   0.0    0.0        0
 182 Kammer    V1  1  1  0 0.984  24.52      0.0      0.0      0.0     0.0     0.0  0.0       0.0     0.0   0.0    0.0        0
 183 Muskngum  V1  1  1  2 1.005  27.65      0.0      0.0    391.0     0.0     0.0  1.005   200.0   -67.0   0.0    0.0        0
 184 Muskngum  V2  1  1  2 1.050  27.48     39.0     18.0    392.0     0.0     0.0  1.050   200.0   -67.0   0.0    0.0        0
 185 Summerfl  V2  1  1  0 1.020  24.84     28.0      7.0      0.0     0.0     0.0  0.0       0.0     0.0   0.0    0.0        0
 186 Sporn     V1  1  1  0 1.003  27.55      0.0      0.0      0.0     0.0     0.0  0.0       0.0     0.0   0.0    0.0        0
 187 Sporn     V2  1  1  2 1.035  30.00      0.0      0.0    516.4     0.0     0.0  1.035   300.0  -300.0   0.0    0.0        0
 188 Portsmth  V2  1  1  2 0.984  22.58     66.0     20.0      0.0     0.0     0.0  0.984    32.0   -10.0   0.0    0.0        0
 189 NPortsmt  V2  1  1  0 0.987  22.15      0.0      0.0      0.0     0.0     0.0  0.0       0.0     0.0   0.0    0.0        0
 190 Hillsbro  V2  1  1  2 0.980  20.98      0.0      0.0    -12.0     0.0     0.0  0.980   100.0  -100.0   0.0    0.0        0
 191 Sargents  V2  1  1  2 0.991  21.94      0.0      0.0     -6.0     0.0     0.0  0.991   100.0  -100.0   0.0    0.0        0
 192 Bellefnt  V2  1  1  2 0.958  21.64     68.0     27.0      0.0     0.0     0.0  0.958     9.0    -6.0   0.0    0.12       0
 193 SthPoint  V2  1  1  0 0.967  22.91     47.0     11.0      0.0     0.0     0.0  0.0       0.0     0.0   0.0    0.0        0
 194 Darrah    V2  1  1  2 0.943  21.77     68.0     36.0      0.0     0.0     0.0  0.943    23.0    -8.0   0.0    0.0        0
 195 Turner    V2  1  1  2 1.006  26.72     61.0     28.0      0.0     0.0     0.0  1.006    70.0   -20.0   0.0    0.0        0
 196 Chemical  V2  1  1  0 1.003  26.42     71.0     26.0      0.0     0.0     0.0  0.0       0.0     0.0   0.0    0.0        0
 197 CapitlHl  V2  1  1  0 1.009  26.72     39.0     32.0      0.0     0.0     0.0  0.0       0.0     0.0   0.0    0.20       0
 198 CabinCrk  V2  1  1  2 1.040  28.96    130.0     26.0    477.0     0.0     0.0  1.040   280.0  -165.0   0.0    0.0        0
 199 Kanawha   V1  1  1  0 0.997  28.10      0.0      0.0      0.0     0.0     0.0  0.0       0.0     0.0   0.0    0.0        0
 200 Logan     V2  1  1  0 0.989  27.24     54.0     27.0      0.0     0.0     0.0  0.0       0.0     0.0   0.0    0.20       0
 201 Sprigg    V2  1  1  0 0.985  28.42     20.0     10.0      0.0     0.0     0.0  0.0       0.0     0.0   0.0    0.10       0
 202 BetsyLne  V2  1  1  0 0.980  30.95     11.0      7.0      0.0     0.0     0.0  0.0       0.0     0.0   0.0    0.0        0
 203 BeaverCk  V2  1  1  2 0.985  32.51     24.0     15.0      0.0     0.0     0.0  0.985    23.0    -8.0   0.0    0.0        0
 204 Hazard    V2  1  1  0 0.987  31.14     21.0     10.0      0.0     0.0     0.0  0.0       0.0     0.0   0.0    0.0        0
 205 Pinevlle  V3  1  1  2 1.015  31.40      0.0      0.0      4.0     0.0     0.0  1.015  1000.0  -100.0   0.0    0.0        0
 206 Fremont   V2  1  1  0 0.987  35.64     48.0     10.0      0.0     0.0     0.0  0.0       0.0     0.0   0.0    0.0        0
 207 ClinchRv  V2  1  1  2 1.005  39.69      0.0      0.0    607.0     0.0     0.0  1.005   300.0  -210.0   0.0    0.0        0
 208 Holston   V2  1  1  2 0.985  33.29     78.0     42.0    -85.0     0.0     0.0  0.985   300.0  -300.0   0.0    0.0        0
 209 HolstonT  V2  1  1  2 0.980  33.31      0.0      0.0    -10.0     0.0     0.0  0.980   100.0  -100.0   0.0    0.0        0
 210 Saltvlle  V2  1  1  2 0.993  33.80     65.0     10.0      0.0     0.0     0.0  0.990     9.0    -3.0   0.0    0.0        0
 211 Tazewell  V2  1  1  0 0.987  30.79     12.0      7.0      0.0     0.0     0.0  0.0       0.0     0.0   0.0    0.0        0
 212 Switchbk  V2  1  1  0 0.991  28.64     30.0     16.0      0.0     0.0     0.0  0.0       0.0     0.0   0.0    0.0        0
 213 Caldwell  V2  1  1  0 0.981  27.67     42.0     31.0      0.0     0.0     0.0  0.0       0.0     0.0   0.0    0.0        0
 214 Baileysv  V2  1  1  0 0.993  27.51     38.0     15.0      0.0     0.0     0.0  0.0       0.0     0.0   0.0    0.0        0
 215 Sundial   V2  1  1  0 1.011  27.88     15.0      9.0      0.0     0.0     0.0  0.0       0.0     0.0   0.0    0.0        0
 216 Bradley   V2  1  1  0 1.024  27.40     34.0      8.0      0.0     0.0     0.0  0.0       0.0     0.0   0.0    0.0        0
 217 Hinton    V2  1  1  2 1.010  27.04      0.0      0.0    -42.0     0.0     0.0  1.010   100.0  -100.0   0.0    0.0        0
 218 Glen Lyn  V2  1  1  2 1.017  28.03     37.0     18.0    252.0     0.0     0.0  1.017   155.0   -50.0   0.0    0.0        0
 219 Wythe     V2  1  1  0 0.993  29.61     22.0     15.0      0.0     0.0     0.0  0.0       0.0     0.0   0.0    0.0        0
 220 Smythe    V2  1  1  0 0.991  32.30      5.0      3.0      0.0     0.0     0.0  0.0       0.0     0.0   0.0    0.0        0
 221 Claytor   V2  1  1  2 1.001  24.44     23.0     16.0     40.0     0.0     0.0  1.01     40.0   -15.0   0.0    0.0        0
 222 Hancock   V2  1  1  2 0.971  21.69     38.0     25.0      0.0     0.0     0.0  0.971    23.0    -8.0   0.0    0.0        0
 223 Roanoke   V2  1  1  2 0.965  20.57     31.0     26.0      0.0     0.0     0.0  0.965    23.0    -8.0   0.0    0.20       0
 224 Cloverdl  V2  1  1  0 0.962  20.32     43.0     16.0      0.0     0.0     0.0  0.0       0.0     0.0   0.0    0.0        0
 225 Reusens   V2  1  1  2 0.952  17.53     28.0     12.0    -22.0     0.0     0.0  0.952   200.0  -200.0   0.0    0.06       0
 226 Blaine    V2  1  1  0 0.967  19.38      2.0      1.0      0.0     0.0     0.0  0.0       0.0     0.0   0.0    0.0        0
 227 Franklin  V2  1  1  0 0.967  18.93      8.0      3.0      0.0     0.0     0.0  0.0       0.0     0.0   0.0    0.0        0
 228 Fieldale  V2  1  1  2 0.973  18.09     39.0     30.0      0.0     0.0     0.0  0.973    23.0    -8.0   0.0    0.06       0
 229 DanRiver  V2  1  1  2 0.980  19.74      0.0      0.0     36.0     0.0     0.0  0.980  1000.0  -100.0   0.0    0.0        0
 230 Danville  V2  1  1  2 0.975  14.99     25.0     13.0    -43.0     0.0     0.0  0.975  1000.0  -100.0   0.0    0.0        0
 231 Deer Crk  V2  1  1  2 0.993  13.74      0.0      0.0     -6.0     0.0     0.0  0.993   200.0  -100.0   0.0    0.0        0